<?xml version="1.0" encoding="UTF-8"?>
<networkChangeEvents xmlns="http://www.matsim.org/files/dtd" xmlns:xsi="http://www.w3.org/2001/XMLSchema-instance" xsi:schemaLocation="http://www.matsim.org/files/dtd http://www.matsim.org/files/dtd/networkChangeEvents.xsd">

	<networkChangeEvent startTime="08:45:00">
		<link refId="18"/>
		<flowCapacity type="absolute" value="0.0"/>
	</networkChangeEvent>

	<networkChangeEvent startTime="10:09:48">
		<link refId="18"/>
		<flowCapacity type="absolute" value="0.0"/>
	</networkChangeEvent>

	<networkChangeEvent startTime="10:14:48">
		<link refId="18"/>
		<flowCapacity type="absolute" value="1.0"/>
	</networkChangeEvent>

	<networkChangeEvent startTime="08:45:00">
		<link refId="19"/>
		<flowCapacity type="absolute" value="0.0"/>
	</networkChangeEvent>

	<networkChangeEvent startTime="10:09:48">
		<link refId="19"/>
		<flowCapacity type="absolute" value="0.0"/>
	</networkChangeEvent>

	<networkChangeEvent startTime="10:14:48">
		<link refId="19"/>
		<flowCapacity type="absolute" value="1.0"/>
	</networkChangeEvent>

	<networkChangeEvent startTime="08:07:30">
		<link refId="46"/>
		<flowCapacity type="absolute" value="0.0"/>
	</networkChangeEvent>

	<networkChangeEvent startTime="09:32:30">
		<link refId="46"/>
		<flowCapacity type="absolute" value="0.0"/>
	</networkChangeEvent>

	<networkChangeEvent startTime="09:37:30">
		<link refId="46"/>
		<flowCapacity type="absolute" value="1.0"/>
	</networkChangeEvent>

	<networkChangeEvent startTime="08:07:30">
		<link refId="47"/>
		<flowCapacity type="absolute" value="0.0"/>
	</networkChangeEvent>

	<networkChangeEvent startTime="09:32:30">
		<link refId="47"/>
		<flowCapacity type="absolute" value="0.0"/>
	</networkChangeEvent>

	<networkChangeEvent startTime="09:37:30">
		<link refId="47"/>
		<flowCapacity type="absolute" value="1.0"/>
	</networkChangeEvent>

	<networkChangeEvent startTime="08:22:30">
		<link refId="108"/>
		<flowCapacity type="absolute" value="0.0"/>
	</networkChangeEvent>

	<networkChangeEvent startTime="09:48:09">
		<link refId="108"/>
		<flowCapacity type="absolute" value="0.0"/>
	</networkChangeEvent>

	<networkChangeEvent startTime="09:53:09">
		<link refId="108"/>
		<flowCapacity type="absolute" value="1.0"/>
	</networkChangeEvent>

	<networkChangeEvent startTime="08:22:30">
		<link refId="109"/>
		<flowCapacity type="absolute" value="0.0"/>
	</networkChangeEvent>

	<networkChangeEvent startTime="09:48:09">
		<link refId="109"/>
		<flowCapacity type="absolute" value="0.0"/>
	</networkChangeEvent>

	<networkChangeEvent startTime="09:53:09">
		<link refId="109"/>
		<flowCapacity type="absolute" value="1.0"/>
	</networkChangeEvent>

	<networkChangeEvent startTime="08:52:30">
		<link refId="342"/>
		<flowCapacity type="absolute" value="0.0"/>
	</networkChangeEvent>

	<networkChangeEvent startTime="10:12:08">
		<link refId="342"/>
		<flowCapacity type="absolute" value="0.0"/>
	</networkChangeEvent>

	<networkChangeEvent startTime="10:17:08">
		<link refId="342"/>
		<flowCapacity type="absolute" value="1.0"/>
	</networkChangeEvent>

	<networkChangeEvent startTime="08:52:30">
		<link refId="343"/>
		<flowCapacity type="absolute" value="0.0"/>
	</networkChangeEvent>

	<networkChangeEvent startTime="10:12:08">
		<link refId="343"/>
		<flowCapacity type="absolute" value="0.0"/>
	</networkChangeEvent>

	<networkChangeEvent startTime="10:17:08">
		<link refId="343"/>
		<flowCapacity type="absolute" value="1.0"/>
	</networkChangeEvent>

	<networkChangeEvent startTime="08:45:00">
		<link refId="424"/>
		<flowCapacity type="absolute" value="0.0"/>
	</networkChangeEvent>

	<networkChangeEvent startTime="09:57:34">
		<link refId="424"/>
		<flowCapacity type="absolute" value="0.0"/>
	</networkChangeEvent>

	<networkChangeEvent startTime="10:02:34">
		<link refId="424"/>
		<flowCapacity type="absolute" value="1.0"/>
	</networkChangeEvent>

	<networkChangeEvent startTime="08:45:00">
		<link refId="425"/>
		<flowCapacity type="absolute" value="0.0"/>
	</networkChangeEvent>

	<networkChangeEvent startTime="09:57:34">
		<link refId="425"/>
		<flowCapacity type="absolute" value="0.0"/>
	</networkChangeEvent>

	<networkChangeEvent startTime="10:02:34">
		<link refId="425"/>
		<flowCapacity type="absolute" value="1.0"/>
	</networkChangeEvent>

	<networkChangeEvent startTime="09:22:30">
		<link refId="450"/>
		<flowCapacity type="absolute" value="0.0"/>
	</networkChangeEvent>

	<networkChangeEvent startTime="10:36:22">
		<link refId="450"/>
		<flowCapacity type="absolute" value="0.0"/>
	</networkChangeEvent>

	<networkChangeEvent startTime="10:41:22">
		<link refId="450"/>
		<flowCapacity type="absolute" value="1.0"/>
	</networkChangeEvent>

	<networkChangeEvent startTime="09:22:30">
		<link refId="451"/>
		<flowCapacity type="absolute" value="0.0"/>
	</networkChangeEvent>

	<networkChangeEvent startTime="10:36:22">
		<link refId="451"/>
		<flowCapacity type="absolute" value="0.0"/>
	</networkChangeEvent>

	<networkChangeEvent startTime="10:41:22">
		<link refId="451"/>
		<flowCapacity type="absolute" value="1.0"/>
	</networkChangeEvent>

	<networkChangeEvent startTime="08:52:30">
		<link refId="562"/>
		<flowCapacity type="absolute" value="0.0"/>
	</networkChangeEvent>

	<networkChangeEvent startTime="10:05:11">
		<link refId="562"/>
		<flowCapacity type="absolute" value="0.0"/>
	</networkChangeEvent>

	<networkChangeEvent startTime="10:10:11">
		<link refId="562"/>
		<flowCapacity type="absolute" value="1.0"/>
	</networkChangeEvent>

	<networkChangeEvent startTime="08:52:30">
		<link refId="563"/>
		<flowCapacity type="absolute" value="0.0"/>
	</networkChangeEvent>

	<networkChangeEvent startTime="10:05:11">
		<link refId="563"/>
		<flowCapacity type="absolute" value="0.0"/>
	</networkChangeEvent>

	<networkChangeEvent startTime="10:10:11">
		<link refId="563"/>
		<flowCapacity type="absolute" value="1.0"/>
	</networkChangeEvent>

	<networkChangeEvent startTime="08:37:30">
		<link refId="604"/>
		<flowCapacity type="absolute" value="0.0"/>
	</networkChangeEvent>

	<networkChangeEvent startTime="09:50:13">
		<link refId="604"/>
		<flowCapacity type="absolute" value="0.0"/>
	</networkChangeEvent>

	<networkChangeEvent startTime="09:55:13">
		<link refId="604"/>
		<flowCapacity type="absolute" value="1.0"/>
	</networkChangeEvent>

	<networkChangeEvent startTime="08:37:30">
		<link refId="605"/>
		<flowCapacity type="absolute" value="0.0"/>
	</networkChangeEvent>

	<networkChangeEvent startTime="09:50:13">
		<link refId="605"/>
		<flowCapacity type="absolute" value="0.0"/>
	</networkChangeEvent>

	<networkChangeEvent startTime="09:55:13">
		<link refId="605"/>
		<flowCapacity type="absolute" value="1.0"/>
	</networkChangeEvent>

	<networkChangeEvent startTime="09:15:00">
		<link refId="674"/>
		<flowCapacity type="absolute" value="0.0"/>
	</networkChangeEvent>

	<networkChangeEvent startTime="10:29:35">
		<link refId="674"/>
		<flowCapacity type="absolute" value="0.0"/>
	</networkChangeEvent>

	<networkChangeEvent startTime="10:34:35">
		<link refId="674"/>
		<flowCapacity type="absolute" value="1.0"/>
	</networkChangeEvent>

	<networkChangeEvent startTime="09:15:00">
		<link refId="675"/>
		<flowCapacity type="absolute" value="0.0"/>
	</networkChangeEvent>

	<networkChangeEvent startTime="10:29:35">
		<link refId="675"/>
		<flowCapacity type="absolute" value="0.0"/>
	</networkChangeEvent>

	<networkChangeEvent startTime="10:34:35">
		<link refId="675"/>
		<flowCapacity type="absolute" value="1.0"/>
	</networkChangeEvent>

	<networkChangeEvent startTime="08:15:00">
		<link refId="694"/>
		<flowCapacity type="absolute" value="0.0"/>
	</networkChangeEvent>

	<networkChangeEvent startTime="09:53:00">
		<link refId="694"/>
		<flowCapacity type="absolute" value="0.0"/>
	</networkChangeEvent>

	<networkChangeEvent startTime="09:58:00">
		<link refId="694"/>
		<flowCapacity type="absolute" value="1.0"/>
	</networkChangeEvent>

	<networkChangeEvent startTime="08:15:00">
		<link refId="695"/>
		<flowCapacity type="absolute" value="0.0"/>
	</networkChangeEvent>

	<networkChangeEvent startTime="09:53:00">
		<link refId="695"/>
		<flowCapacity type="absolute" value="0.0"/>
	</networkChangeEvent>

	<networkChangeEvent startTime="09:58:00">
		<link refId="695"/>
		<flowCapacity type="absolute" value="1.0"/>
	</networkChangeEvent>

	<networkChangeEvent startTime="08:45:00">
		<link refId="702"/>
		<flowCapacity type="absolute" value="0.0"/>
	</networkChangeEvent>

	<networkChangeEvent startTime="10:04:07">
		<link refId="702"/>
		<flowCapacity type="absolute" value="0.0"/>
	</networkChangeEvent>

	<networkChangeEvent startTime="10:09:07">
		<link refId="702"/>
		<flowCapacity type="absolute" value="1.0"/>
	</networkChangeEvent>

	<networkChangeEvent startTime="08:45:00">
		<link refId="703"/>
		<flowCapacity type="absolute" value="0.0"/>
	</networkChangeEvent>

	<networkChangeEvent startTime="10:04:07">
		<link refId="703"/>
		<flowCapacity type="absolute" value="0.0"/>
	</networkChangeEvent>

	<networkChangeEvent startTime="10:09:07">
		<link refId="703"/>
		<flowCapacity type="absolute" value="1.0"/>
	</networkChangeEvent>

	<networkChangeEvent startTime="08:37:30">
		<link refId="704"/>
		<flowCapacity type="absolute" value="0.0"/>
	</networkChangeEvent>

	<networkChangeEvent startTime="10:00:21">
		<link refId="704"/>
		<flowCapacity type="absolute" value="0.0"/>
	</networkChangeEvent>

	<networkChangeEvent startTime="10:05:21">
		<link refId="704"/>
		<flowCapacity type="absolute" value="1.0"/>
	</networkChangeEvent>

	<networkChangeEvent startTime="08:37:30">
		<link refId="705"/>
		<flowCapacity type="absolute" value="0.0"/>
	</networkChangeEvent>

	<networkChangeEvent startTime="10:00:21">
		<link refId="705"/>
		<flowCapacity type="absolute" value="0.0"/>
	</networkChangeEvent>

	<networkChangeEvent startTime="10:05:21">
		<link refId="705"/>
		<flowCapacity type="absolute" value="1.0"/>
	</networkChangeEvent>

	<networkChangeEvent startTime="08:30:00">
		<link refId="730"/>
		<flowCapacity type="absolute" value="0.0"/>
	</networkChangeEvent>

	<networkChangeEvent startTime="09:55:57">
		<link refId="730"/>
		<flowCapacity type="absolute" value="0.0"/>
	</networkChangeEvent>

	<networkChangeEvent startTime="10:00:57">
		<link refId="730"/>
		<flowCapacity type="absolute" value="1.0"/>
	</networkChangeEvent>

	<networkChangeEvent startTime="08:30:00">
		<link refId="731"/>
		<flowCapacity type="absolute" value="0.0"/>
	</networkChangeEvent>

	<networkChangeEvent startTime="09:55:57">
		<link refId="731"/>
		<flowCapacity type="absolute" value="0.0"/>
	</networkChangeEvent>

	<networkChangeEvent startTime="10:00:57">
		<link refId="731"/>
		<flowCapacity type="absolute" value="1.0"/>
	</networkChangeEvent>

	<networkChangeEvent startTime="08:22:30">
		<link refId="758"/>
		<flowCapacity type="absolute" value="0.0"/>
	</networkChangeEvent>

	<networkChangeEvent startTime="09:48:01">
		<link refId="758"/>
		<flowCapacity type="absolute" value="0.0"/>
	</networkChangeEvent>

	<networkChangeEvent startTime="09:53:01">
		<link refId="758"/>
		<flowCapacity type="absolute" value="1.0"/>
	</networkChangeEvent>

	<networkChangeEvent startTime="08:22:30">
		<link refId="759"/>
		<flowCapacity type="absolute" value="0.0"/>
	</networkChangeEvent>

	<networkChangeEvent startTime="09:48:01">
		<link refId="759"/>
		<flowCapacity type="absolute" value="0.0"/>
	</networkChangeEvent>

	<networkChangeEvent startTime="09:53:01">
		<link refId="759"/>
		<flowCapacity type="absolute" value="1.0"/>
	</networkChangeEvent>

	<networkChangeEvent startTime="08:00:00">
		<link refId="782"/>
		<flowCapacity type="absolute" value="0.0"/>
	</networkChangeEvent>

	<networkChangeEvent startTime="09:39:45">
		<link refId="782"/>
		<flowCapacity type="absolute" value="0.0"/>
	</networkChangeEvent>

	<networkChangeEvent startTime="09:44:45">
		<link refId="782"/>
		<flowCapacity type="absolute" value="1.0"/>
	</networkChangeEvent>

	<networkChangeEvent startTime="08:00:00">
		<link refId="783"/>
		<flowCapacity type="absolute" value="0.0"/>
	</networkChangeEvent>

	<networkChangeEvent startTime="09:39:45">
		<link refId="783"/>
		<flowCapacity type="absolute" value="0.0"/>
	</networkChangeEvent>

	<networkChangeEvent startTime="09:44:45">
		<link refId="783"/>
		<flowCapacity type="absolute" value="1.0"/>
	</networkChangeEvent>

	<networkChangeEvent startTime="08:00:00">
		<link refId="792"/>
		<flowCapacity type="absolute" value="0.0"/>
	</networkChangeEvent>

	<networkChangeEvent startTime="10:28:50">
		<link refId="792"/>
		<flowCapacity type="absolute" value="0.0"/>
	</networkChangeEvent>

	<networkChangeEvent startTime="10:33:50">
		<link refId="792"/>
		<flowCapacity type="absolute" value="1.0"/>
	</networkChangeEvent>

	<networkChangeEvent startTime="08:00:00">
		<link refId="793"/>
		<flowCapacity type="absolute" value="0.0"/>
	</networkChangeEvent>

	<networkChangeEvent startTime="10:28:50">
		<link refId="793"/>
		<flowCapacity type="absolute" value="0.0"/>
	</networkChangeEvent>

	<networkChangeEvent startTime="10:33:50">
		<link refId="793"/>
		<flowCapacity type="absolute" value="1.0"/>
	</networkChangeEvent>

	<networkChangeEvent startTime="09:30:00">
		<link refId="812"/>
		<flowCapacity type="absolute" value="0.0"/>
	</networkChangeEvent>

	<networkChangeEvent startTime="10:42:33">
		<link refId="812"/>
		<flowCapacity type="absolute" value="0.0"/>
	</networkChangeEvent>

	<networkChangeEvent startTime="10:47:33">
		<link refId="812"/>
		<flowCapacity type="absolute" value="1.0"/>
	</networkChangeEvent>

	<networkChangeEvent startTime="09:30:00">
		<link refId="813"/>
		<flowCapacity type="absolute" value="0.0"/>
	</networkChangeEvent>

	<networkChangeEvent startTime="10:42:33">
		<link refId="813"/>
		<flowCapacity type="absolute" value="0.0"/>
	</networkChangeEvent>

	<networkChangeEvent startTime="10:47:33">
		<link refId="813"/>
		<flowCapacity type="absolute" value="1.0"/>
	</networkChangeEvent>

	<networkChangeEvent startTime="09:07:30">
		<link refId="816"/>
		<flowCapacity type="absolute" value="0.0"/>
	</networkChangeEvent>

	<networkChangeEvent startTime="10:23:31">
		<link refId="816"/>
		<flowCapacity type="absolute" value="0.0"/>
	</networkChangeEvent>

	<networkChangeEvent startTime="10:28:31">
		<link refId="816"/>
		<flowCapacity type="absolute" value="1.0"/>
	</networkChangeEvent>

	<networkChangeEvent startTime="09:07:30">
		<link refId="817"/>
		<flowCapacity type="absolute" value="0.0"/>
	</networkChangeEvent>

	<networkChangeEvent startTime="10:23:31">
		<link refId="817"/>
		<flowCapacity type="absolute" value="0.0"/>
	</networkChangeEvent>

	<networkChangeEvent startTime="10:28:31">
		<link refId="817"/>
		<flowCapacity type="absolute" value="1.0"/>
	</networkChangeEvent>

	<networkChangeEvent startTime="08:15:00">
		<link refId="828"/>
		<flowCapacity type="absolute" value="0.0"/>
	</networkChangeEvent>

	<networkChangeEvent startTime="10:21:23">
		<link refId="828"/>
		<flowCapacity type="absolute" value="0.0"/>
	</networkChangeEvent>

	<networkChangeEvent startTime="10:26:23">
		<link refId="828"/>
		<flowCapacity type="absolute" value="1.0"/>
	</networkChangeEvent>

	<networkChangeEvent startTime="08:15:00">
		<link refId="829"/>
		<flowCapacity type="absolute" value="0.0"/>
	</networkChangeEvent>

	<networkChangeEvent startTime="10:21:23">
		<link refId="829"/>
		<flowCapacity type="absolute" value="0.0"/>
	</networkChangeEvent>

	<networkChangeEvent startTime="10:26:23">
		<link refId="829"/>
		<flowCapacity type="absolute" value="1.0"/>
	</networkChangeEvent>

	<networkChangeEvent startTime="08:37:30">
		<link refId="832"/>
		<flowCapacity type="absolute" value="0.0"/>
	</networkChangeEvent>

	<networkChangeEvent startTime="09:50:09">
		<link refId="832"/>
		<flowCapacity type="absolute" value="0.0"/>
	</networkChangeEvent>

	<networkChangeEvent startTime="09:55:09">
		<link refId="832"/>
		<flowCapacity type="absolute" value="1.0"/>
	</networkChangeEvent>

	<networkChangeEvent startTime="08:37:30">
		<link refId="833"/>
		<flowCapacity type="absolute" value="0.0"/>
	</networkChangeEvent>

	<networkChangeEvent startTime="09:50:09">
		<link refId="833"/>
		<flowCapacity type="absolute" value="0.0"/>
	</networkChangeEvent>

	<networkChangeEvent startTime="09:55:09">
		<link refId="833"/>
		<flowCapacity type="absolute" value="1.0"/>
	</networkChangeEvent>

	<networkChangeEvent startTime="09:07:30">
		<link refId="862"/>
		<flowCapacity type="absolute" value="0.0"/>
	</networkChangeEvent>

	<networkChangeEvent startTime="10:23:21">
		<link refId="862"/>
		<flowCapacity type="absolute" value="0.0"/>
	</networkChangeEvent>

	<networkChangeEvent startTime="10:28:21">
		<link refId="862"/>
		<flowCapacity type="absolute" value="1.0"/>
	</networkChangeEvent>

	<networkChangeEvent startTime="09:07:30">
		<link refId="863"/>
		<flowCapacity type="absolute" value="0.0"/>
	</networkChangeEvent>

	<networkChangeEvent startTime="10:23:21">
		<link refId="863"/>
		<flowCapacity type="absolute" value="0.0"/>
	</networkChangeEvent>

	<networkChangeEvent startTime="10:28:21">
		<link refId="863"/>
		<flowCapacity type="absolute" value="1.0"/>
	</networkChangeEvent>

	<networkChangeEvent startTime="08:52:30">
		<link refId="870"/>
		<flowCapacity type="absolute" value="0.0"/>
	</networkChangeEvent>

	<networkChangeEvent startTime="10:10:20">
		<link refId="870"/>
		<flowCapacity type="absolute" value="0.0"/>
	</networkChangeEvent>

	<networkChangeEvent startTime="10:15:20">
		<link refId="870"/>
		<flowCapacity type="absolute" value="1.0"/>
	</networkChangeEvent>

	<networkChangeEvent startTime="08:52:30">
		<link refId="871"/>
		<flowCapacity type="absolute" value="0.0"/>
	</networkChangeEvent>

	<networkChangeEvent startTime="10:10:20">
		<link refId="871"/>
		<flowCapacity type="absolute" value="0.0"/>
	</networkChangeEvent>

	<networkChangeEvent startTime="10:15:20">
		<link refId="871"/>
		<flowCapacity type="absolute" value="1.0"/>
	</networkChangeEvent>

	<networkChangeEvent startTime="07:52:30">
		<link refId="874"/>
		<flowCapacity type="absolute" value="0.0"/>
	</networkChangeEvent>

	<networkChangeEvent startTime="09:26:42">
		<link refId="874"/>
		<flowCapacity type="absolute" value="0.0"/>
	</networkChangeEvent>

	<networkChangeEvent startTime="09:31:42">
		<link refId="874"/>
		<flowCapacity type="absolute" value="1.0"/>
	</networkChangeEvent>

	<networkChangeEvent startTime="07:52:30">
		<link refId="875"/>
		<flowCapacity type="absolute" value="0.0"/>
	</networkChangeEvent>

	<networkChangeEvent startTime="09:26:42">
		<link refId="875"/>
		<flowCapacity type="absolute" value="0.0"/>
	</networkChangeEvent>

	<networkChangeEvent startTime="09:31:42">
		<link refId="875"/>
		<flowCapacity type="absolute" value="1.0"/>
	</networkChangeEvent>

	<networkChangeEvent startTime="08:07:30">
		<link refId="878"/>
		<flowCapacity type="absolute" value="0.0"/>
	</networkChangeEvent>

	<networkChangeEvent startTime="09:33:05">
		<link refId="878"/>
		<flowCapacity type="absolute" value="0.0"/>
	</networkChangeEvent>

	<networkChangeEvent startTime="09:38:05">
		<link refId="878"/>
		<flowCapacity type="absolute" value="1.0"/>
	</networkChangeEvent>

	<networkChangeEvent startTime="08:07:30">
		<link refId="879"/>
		<flowCapacity type="absolute" value="0.0"/>
	</networkChangeEvent>

	<networkChangeEvent startTime="09:33:05">
		<link refId="879"/>
		<flowCapacity type="absolute" value="0.0"/>
	</networkChangeEvent>

	<networkChangeEvent startTime="09:38:05">
		<link refId="879"/>
		<flowCapacity type="absolute" value="1.0"/>
	</networkChangeEvent>

	<networkChangeEvent startTime="08:45:00">
		<link refId="882"/>
		<flowCapacity type="absolute" value="0.0"/>
	</networkChangeEvent>

	<networkChangeEvent startTime="10:05:32">
		<link refId="882"/>
		<flowCapacity type="absolute" value="0.0"/>
	</networkChangeEvent>

	<networkChangeEvent startTime="10:10:32">
		<link refId="882"/>
		<flowCapacity type="absolute" value="1.0"/>
	</networkChangeEvent>

	<networkChangeEvent startTime="08:45:00">
		<link refId="883"/>
		<flowCapacity type="absolute" value="0.0"/>
	</networkChangeEvent>

	<networkChangeEvent startTime="10:05:32">
		<link refId="883"/>
		<flowCapacity type="absolute" value="0.0"/>
	</networkChangeEvent>

	<networkChangeEvent startTime="10:10:32">
		<link refId="883"/>
		<flowCapacity type="absolute" value="1.0"/>
	</networkChangeEvent>

	<networkChangeEvent startTime="08:52:30">
		<link refId="898"/>
		<flowCapacity type="absolute" value="0.0"/>
	</networkChangeEvent>

	<networkChangeEvent startTime="10:11:16">
		<link refId="898"/>
		<flowCapacity type="absolute" value="0.0"/>
	</networkChangeEvent>

	<networkChangeEvent startTime="10:16:16">
		<link refId="898"/>
		<flowCapacity type="absolute" value="1.0"/>
	</networkChangeEvent>

	<networkChangeEvent startTime="08:52:30">
		<link refId="899"/>
		<flowCapacity type="absolute" value="0.0"/>
	</networkChangeEvent>

	<networkChangeEvent startTime="10:11:16">
		<link refId="899"/>
		<flowCapacity type="absolute" value="0.0"/>
	</networkChangeEvent>

	<networkChangeEvent startTime="10:16:16">
		<link refId="899"/>
		<flowCapacity type="absolute" value="1.0"/>
	</networkChangeEvent>

	<networkChangeEvent startTime="08:45:00">
		<link refId="920"/>
		<flowCapacity type="absolute" value="0.0"/>
	</networkChangeEvent>

	<networkChangeEvent startTime="10:07:25">
		<link refId="920"/>
		<flowCapacity type="absolute" value="0.0"/>
	</networkChangeEvent>

	<networkChangeEvent startTime="10:12:25">
		<link refId="920"/>
		<flowCapacity type="absolute" value="1.0"/>
	</networkChangeEvent>

	<networkChangeEvent startTime="08:45:00">
		<link refId="921"/>
		<flowCapacity type="absolute" value="0.0"/>
	</networkChangeEvent>

	<networkChangeEvent startTime="10:07:25">
		<link refId="921"/>
		<flowCapacity type="absolute" value="0.0"/>
	</networkChangeEvent>

	<networkChangeEvent startTime="10:12:25">
		<link refId="921"/>
		<flowCapacity type="absolute" value="1.0"/>
	</networkChangeEvent>

	<networkChangeEvent startTime="08:45:00">
		<link refId="922"/>
		<flowCapacity type="absolute" value="0.0"/>
	</networkChangeEvent>

	<networkChangeEvent startTime="09:57:46">
		<link refId="922"/>
		<flowCapacity type="absolute" value="0.0"/>
	</networkChangeEvent>

	<networkChangeEvent startTime="10:02:46">
		<link refId="922"/>
		<flowCapacity type="absolute" value="1.0"/>
	</networkChangeEvent>

	<networkChangeEvent startTime="08:45:00">
		<link refId="923"/>
		<flowCapacity type="absolute" value="0.0"/>
	</networkChangeEvent>

	<networkChangeEvent startTime="09:57:46">
		<link refId="923"/>
		<flowCapacity type="absolute" value="0.0"/>
	</networkChangeEvent>

	<networkChangeEvent startTime="10:02:46">
		<link refId="923"/>
		<flowCapacity type="absolute" value="1.0"/>
	</networkChangeEvent>

	<networkChangeEvent startTime="08:37:30">
		<link refId="924"/>
		<flowCapacity type="absolute" value="0.0"/>
	</networkChangeEvent>

	<networkChangeEvent startTime="09:54:18">
		<link refId="924"/>
		<flowCapacity type="absolute" value="0.0"/>
	</networkChangeEvent>

	<networkChangeEvent startTime="09:59:18">
		<link refId="924"/>
		<flowCapacity type="absolute" value="1.0"/>
	</networkChangeEvent>

	<networkChangeEvent startTime="08:37:30">
		<link refId="925"/>
		<flowCapacity type="absolute" value="0.0"/>
	</networkChangeEvent>

	<networkChangeEvent startTime="09:54:18">
		<link refId="925"/>
		<flowCapacity type="absolute" value="0.0"/>
	</networkChangeEvent>

	<networkChangeEvent startTime="09:59:18">
		<link refId="925"/>
		<flowCapacity type="absolute" value="1.0"/>
	</networkChangeEvent>

	<networkChangeEvent startTime="09:30:00">
		<link refId="928"/>
		<flowCapacity type="absolute" value="0.0"/>
	</networkChangeEvent>

	<networkChangeEvent startTime="10:43:07">
		<link refId="928"/>
		<flowCapacity type="absolute" value="0.0"/>
	</networkChangeEvent>

	<networkChangeEvent startTime="10:48:07">
		<link refId="928"/>
		<flowCapacity type="absolute" value="1.0"/>
	</networkChangeEvent>

	<networkChangeEvent startTime="09:30:00">
		<link refId="929"/>
		<flowCapacity type="absolute" value="0.0"/>
	</networkChangeEvent>

	<networkChangeEvent startTime="10:43:07">
		<link refId="929"/>
		<flowCapacity type="absolute" value="0.0"/>
	</networkChangeEvent>

	<networkChangeEvent startTime="10:48:07">
		<link refId="929"/>
		<flowCapacity type="absolute" value="1.0"/>
	</networkChangeEvent>

	<networkChangeEvent startTime="09:22:30">
		<link refId="930"/>
		<flowCapacity type="absolute" value="0.0"/>
	</networkChangeEvent>

	<networkChangeEvent startTime="10:35:11">
		<link refId="930"/>
		<flowCapacity type="absolute" value="0.0"/>
	</networkChangeEvent>

	<networkChangeEvent startTime="10:40:11">
		<link refId="930"/>
		<flowCapacity type="absolute" value="1.0"/>
	</networkChangeEvent>

	<networkChangeEvent startTime="09:22:30">
		<link refId="931"/>
		<flowCapacity type="absolute" value="0.0"/>
	</networkChangeEvent>

	<networkChangeEvent startTime="10:35:11">
		<link refId="931"/>
		<flowCapacity type="absolute" value="0.0"/>
	</networkChangeEvent>

	<networkChangeEvent startTime="10:40:11">
		<link refId="931"/>
		<flowCapacity type="absolute" value="1.0"/>
	</networkChangeEvent>

	<networkChangeEvent startTime="08:22:30">
		<link refId="940"/>
		<flowCapacity type="absolute" value="0.0"/>
	</networkChangeEvent>

	<networkChangeEvent startTime="10:47:56">
		<link refId="940"/>
		<flowCapacity type="absolute" value="0.0"/>
	</networkChangeEvent>

	<networkChangeEvent startTime="10:52:56">
		<link refId="940"/>
		<flowCapacity type="absolute" value="1.0"/>
	</networkChangeEvent>

	<networkChangeEvent startTime="08:22:30">
		<link refId="941"/>
		<flowCapacity type="absolute" value="0.0"/>
	</networkChangeEvent>

	<networkChangeEvent startTime="10:47:56">
		<link refId="941"/>
		<flowCapacity type="absolute" value="0.0"/>
	</networkChangeEvent>

	<networkChangeEvent startTime="10:52:56">
		<link refId="941"/>
		<flowCapacity type="absolute" value="1.0"/>
	</networkChangeEvent>

	<networkChangeEvent startTime="09:07:30">
		<link refId="942"/>
		<flowCapacity type="absolute" value="0.0"/>
	</networkChangeEvent>

	<networkChangeEvent startTime="10:21:16">
		<link refId="942"/>
		<flowCapacity type="absolute" value="0.0"/>
	</networkChangeEvent>

	<networkChangeEvent startTime="10:26:16">
		<link refId="942"/>
		<flowCapacity type="absolute" value="1.0"/>
	</networkChangeEvent>

	<networkChangeEvent startTime="09:07:30">
		<link refId="943"/>
		<flowCapacity type="absolute" value="0.0"/>
	</networkChangeEvent>

	<networkChangeEvent startTime="10:21:16">
		<link refId="943"/>
		<flowCapacity type="absolute" value="0.0"/>
	</networkChangeEvent>

	<networkChangeEvent startTime="10:26:16">
		<link refId="943"/>
		<flowCapacity type="absolute" value="1.0"/>
	</networkChangeEvent>

	<networkChangeEvent startTime="09:15:00">
		<link refId="948"/>
		<flowCapacity type="absolute" value="0.0"/>
	</networkChangeEvent>

	<networkChangeEvent startTime="10:29:35">
		<link refId="948"/>
		<flowCapacity type="absolute" value="0.0"/>
	</networkChangeEvent>

	<networkChangeEvent startTime="10:34:35">
		<link refId="948"/>
		<flowCapacity type="absolute" value="1.0"/>
	</networkChangeEvent>

	<networkChangeEvent startTime="09:15:00">
		<link refId="949"/>
		<flowCapacity type="absolute" value="0.0"/>
	</networkChangeEvent>

	<networkChangeEvent startTime="10:29:35">
		<link refId="949"/>
		<flowCapacity type="absolute" value="0.0"/>
	</networkChangeEvent>

	<networkChangeEvent startTime="10:34:35">
		<link refId="949"/>
		<flowCapacity type="absolute" value="1.0"/>
	</networkChangeEvent>

	<networkChangeEvent startTime="08:52:30">
		<link refId="956"/>
		<flowCapacity type="absolute" value="0.0"/>
	</networkChangeEvent>

	<networkChangeEvent startTime="10:08:07">
		<link refId="956"/>
		<flowCapacity type="absolute" value="0.0"/>
	</networkChangeEvent>

	<networkChangeEvent startTime="10:13:07">
		<link refId="956"/>
		<flowCapacity type="absolute" value="1.0"/>
	</networkChangeEvent>

	<networkChangeEvent startTime="08:52:30">
		<link refId="957"/>
		<flowCapacity type="absolute" value="0.0"/>
	</networkChangeEvent>

	<networkChangeEvent startTime="10:08:07">
		<link refId="957"/>
		<flowCapacity type="absolute" value="0.0"/>
	</networkChangeEvent>

	<networkChangeEvent startTime="10:13:07">
		<link refId="957"/>
		<flowCapacity type="absolute" value="1.0"/>
	</networkChangeEvent>

	<networkChangeEvent startTime="08:15:00">
		<link refId="960"/>
		<flowCapacity type="absolute" value="0.0"/>
	</networkChangeEvent>

	<networkChangeEvent startTime="09:48:35">
		<link refId="960"/>
		<flowCapacity type="absolute" value="0.0"/>
	</networkChangeEvent>

	<networkChangeEvent startTime="09:53:35">
		<link refId="960"/>
		<flowCapacity type="absolute" value="1.0"/>
	</networkChangeEvent>

	<networkChangeEvent startTime="08:15:00">
		<link refId="961"/>
		<flowCapacity type="absolute" value="0.0"/>
	</networkChangeEvent>

	<networkChangeEvent startTime="09:48:35">
		<link refId="961"/>
		<flowCapacity type="absolute" value="0.0"/>
	</networkChangeEvent>

	<networkChangeEvent startTime="09:53:35">
		<link refId="961"/>
		<flowCapacity type="absolute" value="1.0"/>
	</networkChangeEvent>

	<networkChangeEvent startTime="08:45:00">
		<link refId="972"/>
		<flowCapacity type="absolute" value="0.0"/>
	</networkChangeEvent>

	<networkChangeEvent startTime="09:59:56">
		<link refId="972"/>
		<flowCapacity type="absolute" value="0.0"/>
	</networkChangeEvent>

	<networkChangeEvent startTime="10:04:56">
		<link refId="972"/>
		<flowCapacity type="absolute" value="1.0"/>
	</networkChangeEvent>

	<networkChangeEvent startTime="08:45:00">
		<link refId="973"/>
		<flowCapacity type="absolute" value="0.0"/>
	</networkChangeEvent>

	<networkChangeEvent startTime="09:59:56">